   3
 units: A
      O                    0.000000   -0.292945    0.000000
      H                    0.756690    0.292945    0.000000
      H                   -0.756690    0.292945    0.000000
   3
 units: A
      O                   -0.000000   -0.381474   -0.000000
      H                    0.888700    0.409813   -0.000000
      H                   -0.888700    0.409813   -0.000000
   3
 units: A
      O                   -0.000000   -0.309747   -0.000000
      H                    0.781744    0.315126   -0.000000
      H                   -0.781744    0.315126   -0.000000
   3
 units: A
      O                   -0.000000   -0.309747   -0.000000
      H                    0.781744    0.315126   -0.000000
      H                   -0.781744    0.315126   -0.000000
   3
 units: A
      O                   -0.000000   -0.306662   -0.000000
      H                    0.777145    0.311053   -0.000000
      H                   -0.777145    0.311053   -0.000000
   3
 units: A
      O                   -0.000000   -0.306662   -0.000000
      H                    0.777145    0.311053   -0.000000
      H                   -0.777145    0.311053   -0.000000
   3
 units: A
      O                   -0.000000   -0.273212    0.000000
      H                    0.787518    0.324218   -0.000000
      H                   -0.787518    0.324218   -0.000000
   3
 units: A
      O                   -0.000000   -0.298631   -0.000000
      H                    0.779635    0.314214   -0.000000
      H                   -0.779635    0.314214   -0.000000
   3
 units: A
      O                   -0.000000   -0.304572   -0.000000
      H                    0.777793    0.311876   -0.000000
      H                   -0.777793    0.311876   -0.000000
   3
 units: A
      O                   -0.000000   -0.306148   -0.000000
      H                    0.777304    0.311256   -0.000000
      H                   -0.777304    0.311256   -0.000000
   3
 units: A
      O                   -0.000000   -0.306514   -0.000000
      H                    0.777191    0.311112   -0.000000
      H                   -0.777191    0.311112   -0.000000
   3
 units: A
      O                   -0.000000   -0.306620   -0.000000
      H                    0.777158    0.311070   -0.000000
      H                   -0.777158    0.311070   -0.000000
   3
 units: A
      O                   -0.000000   -0.306650   -0.000000
      H                    0.777149    0.311058   -0.000000
      H                   -0.777149    0.311058   -0.000000
   3
 units: A
      O                   -0.000000   -0.306659   -0.000000
      H                    0.777146    0.311055   -0.000000
      H                   -0.777146    0.311055   -0.000000
   3
 units: A
      O                   -0.000000   -0.306659   -0.000000
      H                    0.777146    0.311055   -0.000000
      H                   -0.777146    0.311055   -0.000000
   3
 units: A
      O                   -0.000000   -0.298481   -0.000000
      H                    0.779682    0.314273   -0.000000
      H                   -0.779682    0.314273   -0.000000
   3
 units: A
      O                   -0.000000   -0.304496   -0.000000
      H                    0.777817    0.311906   -0.000000
      H                   -0.777817    0.311906   -0.000000
   3
 units: A
      O                   -0.000000   -0.306117   -0.000000
      H                    0.777314    0.311268   -0.000000
      H                   -0.777314    0.311268   -0.000000
   3
 units: A
      O                   -0.000000   -0.306502   -0.000000
      H                    0.777194    0.311116   -0.000000
      H                   -0.777194    0.311116   -0.000000
   3
 units: A
      O                   -0.000000   -0.306616   -0.000000
      H                    0.777159    0.311072   -0.000000
      H                   -0.777159    0.311072   -0.000000
   3
 units: A
      O                   -0.000000   -0.306648   -0.000000
      H                    0.777149    0.311059   -0.000000
      H                   -0.777149    0.311059   -0.000000
   3
 units: A
      O                   -0.000000   -0.306658   -0.000000
      H                    0.777146    0.311055   -0.000000
      H                   -0.777146    0.311055   -0.000000
   3
 units: A
      O                   -0.000000   -0.306659   -0.000000
      H                    0.777146    0.311055   -0.000000
      H                   -0.777146    0.311055   -0.000000
   3
 units: A
      O                   -0.000000   -0.306659   -0.000000
      H                    0.777146    0.311055   -0.000000
      H                   -0.777146    0.311055   -0.000000
   3
 units: A
      O                   -0.000000   -0.306658   -0.000000
      H                    0.777146    0.311055   -0.000000
      H                   -0.777146    0.311055   -0.000000
   3
 units: A
      O                   -0.000000   -0.306658   -0.000000
      H                    0.777146    0.311055   -0.000000
      H                   -0.777146    0.311055   -0.000000
   3
 units: A
      O                   -0.000000   -0.306655   -0.000000
      H                    0.777147    0.311056   -0.000000
      H                   -0.777147    0.311056   -0.000000
   3
 units: A
      O                   -0.000000   -0.306659   -0.000000
      H                    0.777146    0.311055   -0.000000
      H                   -0.777146    0.311055   -0.000000
   3
 units: A
      O                   -0.000000   -0.306659   -0.000000
      H                    0.777146    0.311055   -0.000000
      H                   -0.777146    0.311055   -0.000000
   3
 units: A
      O                   -0.000000   -0.306659   -0.000000
      H                    0.777146    0.311055   -0.000000
      H                   -0.777146    0.311055   -0.000000
   3
 units: A
      O                   -0.000000   -0.306659   -0.000000
      H                    0.777146    0.311055   -0.000000
      H                   -0.777146    0.311055   -0.000000
   3
 units: A
      O                   -0.000000   -0.306659   -0.000000
      H                    0.777146    0.311055   -0.000000
      H                   -0.777146    0.311055   -0.000000
